[General]
image-path=../../../images
output-scalar-file-append = false
sim-time-limit=20s
**.routingRecorder.enabled = false

############### Statistics ##################
output-scalar-file = ${resultdir}/${configname}/${repetition}.sca
output-vector-file = ${resultdir}/${configname}/${repetition}.vec
seed-set = ${repetition}
**.vector-recording = false

################ Mobility parameters #####################
# *

**.mobility.constraintAreaMaxX = 5000m
**.mobility.constraintAreaMaxY = 5000m
**.mobility.constraintAreaMinX = 0m
**.mobility.constraintAreaMinY = 0m
**.mobility.constraintAreaMinZ = 0m
**.mobility.constraintAreaMaxZ = 0m
**.mobility.initFromDisplayString = false

############### Number of Resource Blocks ################
**.numBands = 50 # this value should be kept equal to the number of RBs

############### Transmission Power ##################
**.ueTxPower = 30
**.eNodeBTxPower = 50
**.targetBler = 0.01
**.blerShift = 5  

############### IPv4 configurator config #################
*.configurator.config = xmldoc("./demo.xml")


#------------------------------------#
# Config Standalone
#
# Topology configuration for the exemplary scenario for NR Standalone deployment
#
[Config Standalone]
network = simu5g.simulations.NR.networks.SingleCell_StandaloneR
sim-time-limit=5s

############### e/gNodeB configuration #################
*.gnb.mobility.initialX = 2000m
*.gnb.mobility.initialY = 1500m

############## UE configuration ##################
*.numUe = 10

# connect the UE's NIC to the corresponding serving eNB
*.ue[0].macCellId = 1
*.ue[0].masterId = 1
*.ue[0].nrMacCellId = 1
*.ue[0].nrMasterId = 1

*.ue[1].macCellId = 1
*.ue[1].masterId = 1
*.ue[1].nrMacCellId = 1
*.ue[1].nrMasterId = 1

*.ue[2].macCellId = 1
*.ue[2].masterId = 1
*.ue[2].nrMacCellId = 1
*.ue[2].nrMasterId = 1

*.ue[3].macCellId = 1
*.ue[3].masterId = 1
*.ue[3].nrMacCellId = 1
*.ue[3].nrMasterId = 1

*.ue[4].macCellId = 1
*.ue[4].masterId = 1
*.ue[4].nrMacCellId = 1
*.ue[4].nrMasterId = 1

*.ue[5].macCellId = 1
*.ue[5].masterId = 1
*.ue[5].nrMacCellId = 1
*.ue[5].nrMasterId = 1

*.ue[6].macCellId = 1
*.ue[6].masterId = 1
*.ue[6].nrMacCellId = 1
*.ue[6].nrMasterId = 1

*.ue[7].macCellId = 1
*.ue[7].masterId = 1
*.ue[7].nrMacCellId = 1
*.ue[7].nrMasterId = 1

*.ue[8].macCellId = 1
*.ue[8].masterId = 1
*.ue[8].nrMacCellId = 1
*.ue[8].nrMasterId = 1

*.ue[9].macCellId = 1
*.ue[9].masterId = 1
*.ue[9].nrMacCellId = 1
*.ue[9].nrMasterId = 1

# UE position
*.ue[0].mobility.initialX = 1026m
*.ue[0].mobility.initialY = 363m

*.ue[1].mobility.initialX = 2522m
*.ue[1].mobility.initialY = 2923m

*.ue[2].mobility.initialX = 4467m
*.ue[2].mobility.initialY = 1041m

*.ue[3].mobility.initialX = 4591m
*.ue[3].mobility.initialY = 281m

*.ue[4].mobility.initialX = 1909m
*.ue[4].mobility.initialY = 1611m


*.ue[5].mobility.initialX = 2442m
*.ue[5].mobility.initialY = 4369m

*.ue[6].mobility.initialX = 2723m
*.ue[6].mobility.initialY = 4771m

*.ue[7].mobility.initialX = 207m
*.ue[7].mobility.initialY = 4081m

*.ue[8].mobility.initialX = 964m
*.ue[8].mobility.initialY = 2609m

*.ue[9].mobility.initialX = 2448m
*.ue[9].mobility.initialY = 1444m


#------------------------------------#



#------------------------------------#
# Config VoIP-DL
#
# General configuration for Voice-over-IP DL traffic to the UE
# 
[Config VoIP-DL]
extends=Standalone

# one UDP application for each user
*.ue[*].numApps = 1

# the amount of UDP applications on server should be equal to (numUEs)*(ue[*].numApps) 
*.server.numApps = 10

#============= Application Setup =============
*.ue[*].app[*].typename = "VoIPReceiver"
*.ue[*].app[0].localPort = 3000

*.server.app[*].PacketSize = 40
*.server.app[*].destAddress = "ue[0]" # obtain the address of the client by reading its index in the array of udp Apps
*.server.app[*].localPort = 3088+ancestorIndex(0) 
*.server.app[*].typename = "VoIPSender"
*.server.app[*].startTime = uniform(0s,0.02s)
#------------------------------------#



#------------------------------------#
# Config VoIP-UL
#
# General configuration for Voice-over-IP UL traffic from the UE
# 
[Config VoIP-UL]
extends=Standalone

# one UDP application for each user
*.ue[*].numApps = 1

# the amount of UDP applications on server should be equal to (numUEs)*(ue[*].numApps) 
*.server.numApps = 10

#============= Application Setup =============
*.server.app[*].typename = "VoIPReceiver"
*.server.app[*].localPort = 3000+ancestorIndex(0)

*.ue[*].app[*].PacketSize = 40
# obtain the address of the client by reading its index in the array of udp Apps
*.ue[*].app[*].destAddress = "server" 
*.ue[*].app[*].localPort = 3088+ancestorIndex(0)
*.ue[*].app[*].typename = "VoIPSender"
*.ue[*].app[*].startTime = uniform(0s,0.02s)
#------------------------------------#


